Version 4
SHEET 1 3564 1652
WIRE 672 720 -288 720
WIRE -288 848 -288 720
WIRE -208 848 -288 848
WIRE 176 848 -208 848
WIRE 496 880 432 880
WIRE 528 880 496 880
WIRE 560 880 528 880
WIRE 672 880 672 720
WIRE 672 880 640 880
WIRE -384 896 -432 896
WIRE 16 896 -384 896
WIRE 128 896 96 896
WIRE 176 896 128 896
WIRE 672 896 672 880
WIRE 288 1024 288 992
WIRE 320 1024 320 992
WIRE 352 1024 352 992
WIRE 0 1056 0 1024
WIRE 0 1056 -96 1056
WIRE -96 1088 -96 1056
WIRE 0 1088 0 1056
WIRE 128 1104 128 896
WIRE 320 1104 128 1104
WIRE 528 1104 528 880
WIRE 528 1104 400 1104
WIRE -96 1216 -96 1168
WIRE 0 1216 0 1168
WIRE 0 1216 -96 1216
WIRE 208 1216 208 992
WIRE 208 1216 0 1216
WIRE -592 1264 -592 1216
WIRE -432 1264 -432 896
WIRE -288 1360 -288 1264
WIRE 672 1360 672 960
WIRE 672 1360 -288 1360
WIRE -592 1392 -592 1344
WIRE -432 1392 -432 1344
WIRE -288 1392 -288 1360
FLAG -592 1216 VDD
IOPIN -592 1216 BiDir
FLAG -592 1392 0
FLAG 0 1024 VDD
FLAG -288 1392 0
FLAG -208 848 vin
FLAG -432 1392 0
FLAG -384 896 vcm
FLAG 496 880 out_st
DATAFLAG 144 1216 "$"
SYMBOL voltage -592 1248 R0
SYMATTR InstName V1
SYMATTR Value {VDD}
SYMBOL res -16 1072 R0
SYMATTR InstName R1
SYMATTR Value 10e6
SYMBOL voltage -288 1168 R0
WINDOW 123 24 118 Left 2
SYMATTR Value2 AC 1
SYMATTR InstName V2
SYMATTR Value PULSE(0 {VDD} 0 {Tperiod/2} {Tperiod/2} 1p {Tperiod})
SYMBOL current -96 1088 R0
SYMATTR InstName I2
SYMATTR Value 100µ
SYMBOL cap 656 896 R0
SYMATTR InstName C2
SYMATTR Value {CL}
SYMBOL MobiusChip_v3_OTA_two_stage_v2 272 880 R0
WINDOW 39 -58 -56 Left 2
SYMATTR SpiceLine Cc = {Cc} Rc = {Rc}
SYMATTR InstName X23
SYMBOL res 416 1088 R90
WINDOW 0 0 56 VBottom 2
WINDOW 3 32 56 VTop 2
SYMATTR InstName R2
SYMATTR Value {Rfb}
SYMBOL voltage -432 1248 R0
SYMATTR InstName V3
SYMATTR Value {VDD/2}
SYMBOL res 112 880 R90
WINDOW 0 0 56 VBottom 2
WINDOW 3 32 56 VTop 2
SYMATTR InstName R3
SYMATTR Value {Rfb/10}
SYMBOL res 656 864 R90
WINDOW 0 0 56 VBottom 2
WINDOW 3 32 56 VTop 2
SYMATTR InstName R4
SYMATTR Value {RL}
TEXT -464 1448 Left 2 !.global VDD\n.param VDD = 2.5\n.inc transistor_models_tsmc025_public.inc
TEXT 128 1440 Left 2 !.param Cc=0.001n Rc=300\n.param RL = 100K CL = .001n\n.param Rfb = 500K\n.param Tperiod = 1m\n\n*.step PARAM Rc LIST 0.3 30 300 600\n\n.op\n*.ac dec 10 1 1e9\n.tran 10u uic\n.ic v(vin)=0
