Version 4
SHEET 1 2156 1600
WIRE -752 -352 -816 -352
WIRE -752 0 -752 -352
WIRE -640 0 -640 -48
WIRE -640 0 -752 0
WIRE -624 96 -752 96
WIRE -624 128 -624 96
WIRE -752 224 -752 96
WIRE -752 224 -816 224
WIRE -672 528 -672 480
WIRE 1040 560 112 560
WIRE -672 656 -672 608
WIRE 816 688 672 688
WIRE 672 800 672 688
WIRE 672 800 496 800
WIRE 112 832 112 560
WIRE -240 864 -608 864
WIRE 352 864 352 800
WIRE 672 864 672 800
WIRE 704 864 672 864
WIRE 784 864 768 864
WIRE 880 864 880 784
WIRE 880 864 864 864
WIRE 880 896 880 864
WIRE 1040 896 1040 560
WIRE 1040 896 880 896
WIRE 1168 896 1040 896
WIRE 352 912 352 864
WIRE 496 912 496 800
WIRE 1168 912 1168 896
WIRE -80 944 -112 944
WIRE 48 944 48 832
WIRE 48 944 -80 944
WIRE 880 944 880 896
WIRE -464 976 -464 944
WIRE -464 976 -560 976
WIRE -336 976 -464 976
WIRE -240 992 -240 864
WIRE -176 992 -176 944
WIRE -176 992 -240 992
WIRE -560 1008 -560 976
WIRE -464 1008 -464 976
WIRE -336 1008 -336 976
WIRE -176 1024 -176 992
WIRE -80 1024 -112 1024
WIRE -16 1024 -80 1024
WIRE 48 1024 48 944
WIRE 224 1024 48 1024
WIRE 432 1088 352 1088
WIRE 496 1088 432 1088
WIRE -16 1120 -16 1024
WIRE 624 1120 624 1024
WIRE 624 1120 -16 1120
WIRE -560 1136 -560 1088
WIRE -464 1136 -464 1088
WIRE -464 1136 -560 1136
WIRE -336 1136 -336 1088
WIRE -80 1136 -336 1136
WIRE -48 1136 -80 1136
WIRE 432 1152 432 1088
WIRE 432 1184 432 1152
WIRE 432 1184 240 1184
WIRE -48 1200 -48 1136
WIRE 0 1200 -48 1200
WIRE 880 1216 880 944
WIRE 880 1216 336 1216
WIRE 0 1248 0 1200
WIRE 240 1248 240 1184
WIRE 336 1248 336 1216
WIRE -608 1392 -608 864
WIRE -608 1552 -608 1472
WIRE 1168 1552 1168 976
WIRE 1168 1552 -608 1552
WIRE -608 1584 -608 1552
FLAG 432 1152 BUS01
IOPIN 432 1152 BiDir
FLAG 352 864 BUS02
IOPIN 352 864 BiDir
FLAG 672 800 BUS03
IOPIN 672 800 BiDir
FLAG 880 944 BUS04
IOPIN 880 944 BiDir
FLAG 32 416 BUS05
IOPIN 32 416 BiDir
FLAG 160 416 BUS06
IOPIN 160 416 BiDir
FLAG 288 416 BUS07
IOPIN 288 416 BiDir
FLAG 416 416 BUS08
IOPIN 416 416 BiDir
FLAG 544 416 BUS09
IOPIN 544 416 BiDir
FLAG 672 416 BUS10
IOPIN 672 416 BiDir
FLAG -672 480 VDD
IOPIN -672 480 BiDir
FLAG -672 656 0
FLAG -80 1136 biasn
IOPIN -80 1136 In
FLAG -80 1024 vinp
IOPIN -80 1024 In
FLAG -80 944 vinn
IOPIN -80 944 In
FLAG -464 944 VDD
FLAG -608 1584 0
DATAFLAG -432 864 "$"
DATAFLAG 144 1024 "$"
DATAFLAG 576 800 "$"
DATAFLAG -208 1136 "$"
DATAFLAG 352 1184 "$"
DATAFLAG 608 1216 "$"
DATAFLAG 352 816 "$"
SYMBOL nMOS_currentMirror 240 144 R0
SYMATTR InstName X1
SYMBOL DP_nMOS_1x_A 304 944 R0
SYMATTR InstName X4
SYMBOL DP_nMOS_1x_B 544 944 M0
SYMATTR InstName X5
SYMBOL CS_nMOS_4x_A 528 144 R0
SYMATTR InstName X2
SYMBOL DP_nMOS_4x_A 1568 144 R0
SYMATTR InstName X6
SYMBOL DP_nMOS_4x_B 1792 144 R0
SYMATTR InstName X7
SYMBOL voltage -672 512 R0
SYMATTR InstName V1
SYMATTR Value {VDD}
SYMBOL CS_pMOS_4x_A 816 672 R0
SYMATTR InstName X9
SYMBOL CS_pMOS_4x_B 768 -176 R0
SYMATTR InstName X10
SYMBOL pMOS_currentMirror 432 672 R0
SYMATTR InstName X11
SYMBOL pMOS_currentMirror_array -560 -176 R0
WINDOW 0 -142 -59 Bottom 2
SYMATTR InstName X12
SYMBOL CS_nMOS_4x_B 768 144 R0
SYMATTR InstName X3
SYMBOL DP_pMOS_4x_A 1552 -192 R0
SYMATTR InstName X13
SYMBOL DP_pMOS_4x_B 1776 -192 R0
SYMATTR InstName X14
SYMBOL DP_pMOS_1x_B 1296 -192 R0
SYMATTR InstName X15
SYMBOL DP_pMOS_1x_A 1072 -192 R0
SYMATTR InstName X16
SYMBOL nMOS_currentMirror_array 96 1280 R0
WINDOW 0 -148 -3 Bottom 2
SYMATTR InstName X8
SYMBOL inverter_A 2032 -288 R0
SYMATTR InstName X17
SYMBOL inverter_B 2032 112 R0
SYMATTR InstName X18
SYMBOL OTA_nMOS -816 -48 M0
SYMATTR InstName X19
SYMBOL OTA_pMOS -816 -368 M0
WINDOW 0 16 -51 Bottom 2
SYMATTR InstName X20
SYMBOL res -480 992 R0
SYMATTR InstName R1
SYMATTR Value 10e6
SYMBOL voltage -608 1376 R0
SYMATTR InstName V2
SYMATTR Value 1.25
SYMBOL Misc/jumper 80 768 R0
SYMATTR InstName X21
SYMBOL Misc/jumper -144 960 R0
SYMATTR InstName X22
SYMBOL current -560 1008 R0
SYMATTR InstName I2
SYMATTR Value 100µ
SYMBOL cap 768 848 R90
WINDOW 0 0 32 VBottom 2
WINDOW 3 32 32 VTop 2
SYMATTR InstName C1
SYMATTR Value 1n
SYMBOL res 880 848 R90
WINDOW 0 0 56 VBottom 2
WINDOW 3 32 56 VTop 2
SYMATTR InstName R2
SYMATTR Value 300
SYMBOL cap 1152 912 R0
SYMATTR InstName C2
SYMATTR Value 1n
SYMBOL res -352 992 R0
SYMATTR InstName R3
SYMATTR Value 18K
TEXT -488 544 Left 2 !.global VDD\n.param VDD = 2.5\n.inc transistor_models_tsmc025_public.inc
TEXT 624 -328 Left 2 ;Common Source
TEXT 1216 -328 Center 2 ;Differential Pairs\n1x
TEXT 1688 -336 Center 2 ;Differential Pairs\n4x
TEXT 216 -312 Center 2 ;Current Mirror\n1 : 1
TEXT -312 -312 Center 2 ;Current Mirror Array
TEXT 2064 -392 Center 2 ;Inverters\n16x
TEXT -488 704 Left 2 !.op
