Version 4
SHEET 1 1460 756
WIRE 608 96 208 96
WIRE 784 96 608 96
WIRE 784 128 784 96
WIRE 208 144 208 96
WIRE 528 256 352 256
WIRE 928 256 528 256
WIRE 1024 256 928 256
WIRE 1120 256 1024 256
WIRE 1216 256 1120 256
WIRE 1312 256 1216 256
WIRE 1408 256 1312 256
WIRE 784 288 784 208
WIRE 928 288 928 256
WIRE 1024 288 1024 256
WIRE 1120 288 1120 256
WIRE 1216 288 1216 256
WIRE 1312 288 1312 256
WIRE 1408 288 1408 256
WIRE 208 304 208 224
WIRE 352 304 352 256
WIRE 528 320 528 256
WIRE 528 464 528 400
WIRE 560 464 528 464
WIRE 608 464 608 96
WIRE 608 464 560 464
WIRE 560 480 560 464
FLAG 560 480 0
SYMBOL nMOS_currentMirror 304 336 R0
SYMATTR InstName X1
SYMBOL current 208 144 R0
SYMATTR InstName I1
SYMATTR Value 100µ
SYMBOL voltage 528 304 R0
SYMATTR InstName V1
SYMATTR Value 2.5
SYMBOL nMOS_currentMirror_array 880 320 R0
SYMATTR InstName X2
SYMBOL current 784 128 R0
SYMATTR InstName I2
SYMATTR Value 100µ
TEXT 216 536 Left 2 !.inc model.inc\n.op
