Version 4
SHEET 1 2720 1984
WIRE 1056 832 960 832
WIRE 736 880 704 880
WIRE 992 880 736 880
WIRE 1024 880 992 880
WIRE 1056 880 1056 832
WIRE 1056 880 1024 880
WIRE 1280 880 1056 880
WIRE 1488 880 1280 880
WIRE 1280 944 1280 880
WIRE 1488 944 1488 880
WIRE 704 960 704 880
WIRE 992 960 992 880
WIRE 2016 976 1984 976
WIRE 640 992 576 992
WIRE 928 992 864 992
WIRE 1216 992 1152 992
WIRE 1424 992 1360 992
WIRE 1744 992 1712 992
WIRE 736 1024 736 880
WIRE 736 1024 720 1024
WIRE 1024 1024 1024 880
WIRE 1024 1024 1008 1024
WIRE 80 1088 48 1088
WIRE 320 1088 288 1088
WIRE 1280 1104 1280 1088
WIRE 1488 1104 1488 1088
WIRE 1488 1104 1280 1104
WIRE 704 1120 704 1088
WIRE 768 1120 704 1120
WIRE 800 1120 768 1120
WIRE 864 1120 864 992
WIRE 864 1120 800 1120
WIRE 992 1120 992 1088
WIRE 1040 1120 992 1120
WIRE 1088 1120 1040 1120
WIRE 1152 1120 1152 992
WIRE 1152 1120 1088 1120
WIRE 1488 1120 1488 1104
WIRE 1552 1120 1488 1120
WIRE 1600 1120 1552 1120
WIRE 1712 1120 1712 992
WIRE 1712 1120 1600 1120
WIRE 1808 1120 1808 1088
WIRE 1856 1120 1808 1120
WIRE 1872 1120 1856 1120
WIRE 1984 1120 1984 976
WIRE 1984 1120 1872 1120
WIRE 2080 1120 2080 1072
WIRE 2128 1120 2080 1120
WIRE 2144 1120 2128 1120
WIRE 2160 1120 2144 1120
WIRE 2256 1120 2224 1120
WIRE 2288 1120 2256 1120
WIRE 704 1168 704 1120
WIRE 992 1168 992 1120
WIRE 1152 1168 1152 1120
WIRE 1248 1168 1152 1168
WIRE 1280 1168 1280 1104
WIRE 1360 1168 1360 992
WIRE 1360 1168 1312 1168
WIRE 1488 1168 1488 1120
WIRE 1808 1168 1808 1120
WIRE 2080 1168 2080 1120
WIRE 0 1184 -32 1184
WIRE 48 1184 48 1088
WIRE 48 1184 0 1184
WIRE 224 1184 192 1184
WIRE 288 1184 288 1088
WIRE 288 1184 224 1184
WIRE 480 1184 432 1184
WIRE 576 1184 576 992
WIRE 576 1184 480 1184
WIRE 752 1248 736 1248
WIRE 1040 1248 1024 1248
WIRE 48 1280 48 1184
WIRE 80 1280 48 1280
WIRE 288 1280 288 1184
WIRE 320 1280 288 1280
WIRE 576 1280 576 1184
WIRE 864 1280 864 1120
WIRE 1152 1280 1152 1168
WIRE 1360 1280 1360 1168
WIRE 1712 1280 1712 1120
WIRE 1728 1280 1712 1280
WIRE 1984 1280 1984 1120
WIRE 2000 1280 1984 1280
WIRE 224 1296 224 1184
WIRE 480 1296 480 1184
WIRE 800 1296 800 1120
WIRE 1088 1296 1088 1120
WIRE 1600 1296 1600 1120
WIRE 1872 1296 1872 1120
WIRE 2144 1296 2144 1120
WIRE 224 1408 224 1360
WIRE 480 1408 480 1360
WIRE 480 1408 224 1408
WIRE 704 1408 704 1344
WIRE 704 1408 480 1408
WIRE 752 1408 752 1248
WIRE 752 1408 704 1408
WIRE 800 1408 800 1360
WIRE 800 1408 752 1408
WIRE 992 1408 992 1344
WIRE 992 1408 800 1408
WIRE 1040 1408 1040 1248
WIRE 1040 1408 992 1408
WIRE 1056 1408 1040 1408
WIRE 1088 1408 1088 1360
WIRE 1088 1408 1056 1408
WIRE 1280 1408 1280 1344
WIRE 1280 1408 1088 1408
WIRE 1488 1408 1488 1344
WIRE 1488 1408 1280 1408
WIRE 1600 1408 1600 1360
WIRE 1600 1408 1488 1408
WIRE 1728 1408 1600 1408
WIRE 1872 1408 1872 1360
WIRE 1872 1408 1728 1408
WIRE 2144 1408 2144 1360
WIRE 2144 1408 1872 1408
WIRE 1984 1472 1984 1280
WIRE 1056 1488 1056 1408
WIRE 1056 1488 960 1488
WIRE 1728 1584 1728 1408
WIRE 1984 1584 1984 1552
WIRE 1984 1584 1728 1584
WIRE 336 1664 336 1616
WIRE 336 1792 336 1744
FLAG 0 1184 BUS01
IOPIN 0 1184 BiDir
FLAG 224 1184 BUS02
IOPIN 224 1184 BiDir
FLAG 480 1184 BUS03
IOPIN 480 1184 BiDir
FLAG 768 1120 BUS04
IOPIN 768 1120 BiDir
FLAG 1040 1120 BUS05
IOPIN 1040 1120 BiDir
FLAG 1552 1120 BUS06
IOPIN 1552 1120 BiDir
FLAG 1856 1120 BUS07
IOPIN 1856 1120 BiDir
FLAG 2128 1120 BUS08
IOPIN 2128 1120 BiDir
FLAG 1056 1488 BUS09
IOPIN 1056 1488 BiDir
FLAG 1056 832 BUS10
IOPIN 1056 832 BiDir
FLAG 336 1616 VDD
IOPIN 336 1616 BiDir
FLAG 336 1792 0
FLAG 2256 1120 BUS01
SYMBOL DP_nMOS_1x_A 1232 1200 R0
SYMATTR InstName X4
SYMBOL DP_nMOS_1x_B 1440 1200 R0
SYMATTR InstName X5
SYMBOL CS_nMOS_4x_A 1760 1200 R0
SYMATTR InstName X2
SYMBOL DP_nMOS_4x_A 656 1200 R0
SYMATTR InstName X6
SYMBOL DP_nMOS_4x_B 944 1200 R0
SYMATTR InstName X7
SYMBOL CS_pMOS_4x_A 1744 976 R0
SYMATTR InstName X9
SYMBOL CS_pMOS_4x_B 2016 960 R0
SYMATTR InstName X10
SYMBOL CS_nMOS_4x_B 2032 1200 R0
SYMATTR InstName X3
SYMBOL DP_pMOS_4x_A 640 976 R0
SYMATTR InstName X13
SYMBOL DP_pMOS_4x_B 928 976 R0
SYMATTR InstName X14
SYMBOL DP_pMOS_1x_B 1424 976 R0
SYMATTR InstName X15
SYMBOL DP_pMOS_1x_A 1216 976 R0
SYMATTR InstName X16
SYMBOL inverter_A 336 1072 R0
SYMATTR InstName X17
SYMBOL inverter_B 96 1072 R0
SYMATTR InstName X18
SYMBOL chip_vdd 880 832 R0
SYMATTR InstName X21
SYMBOL chip_vss 880 1488 R0
SYMATTR InstName X22
SYMBOL Misc/jumper 1280 1104 R0
SYMATTR InstName X23
SYMBOL voltage 336 1648 R0
SYMATTR InstName V2
SYMATTR Value {VDD}
SYMBOL current 1984 1472 R0
SYMATTR InstName I1
SYMATTR Value PWL(0 0 10n 1m 20n 0)
SYMBOL Misc/jumper 2192 1056 R0
SYMATTR InstName X1
SYMBOL cap 208 1296 R0
SYMATTR InstName C1
SYMATTR Value {Cpar}
SYMBOL cap 464 1296 R0
SYMATTR InstName C2
SYMATTR Value {Cpar}
SYMBOL cap 784 1296 R0
SYMATTR InstName C3
SYMATTR Value {Cpar}
SYMBOL cap 1072 1296 R0
SYMATTR InstName C4
SYMATTR Value {Cpar}
SYMBOL cap 1584 1296 R0
SYMATTR InstName C5
SYMATTR Value {Cpar}
SYMBOL cap 1856 1296 R0
SYMATTR InstName C6
SYMATTR Value {Cpar}
SYMBOL cap 2128 1296 R0
SYMATTR InstName C7
SYMATTR Value {Cpar}
TEXT 800 1552 Left 2 ;Note: Do not connect a BUS directly to VDD or VSS even with a jumper. \nUse the Chip_VDD and Chip_VSS.
TEXT 1024 680 Center 4 ;Seven Stage Ring Oscillator 16-16-4-4-2-4-4\n7stage_RO
TEXT 504 1704 Left 2 !.global VDD\n.param VDD = 2.5 \n.inc transistor_models_tsmc025_public.inc
TEXT 504 1816 Left 2 !.tran 0.1m
TEXT 1136 1680 Left 2 !.meas tran zc1 find time when v(bus01) = 1.25 rise=20\n.meas tran zc2 find time when v(bus01) = 1.25 rise=21\n.meas tran freq param 1/(zc2-zc1)
TEXT 1136 1816 Left 2 !.param Cpar={200p}
TEXT 504 1648 Left 2 ;Models and Global Parameters
TEXT 1152 1648 Left 2 ;Measurements
TEXT 1144 1784 Left 2 ;Circuit Parameters
TEXT 496 1784 Left 2 ;Simulation Command
TEXT 480 1872 Left 2 ;Note: Do not connect a BUS directly to VDD or VSS even with a jumper. Use the Chip_VDD and Chip_VSS.
RECTANGLE Normal 1132 1628 1776 1768 2
RECTANGLE Normal 1132 1772 1776 1836 2
RECTANGLE Normal 476 1628 1120 1768 2
RECTANGLE Normal 476 1772 1120 1836 2
