Version 4
SHEET 1 2660 1556
WIRE 1744 496 1824 448
WIRE 1744 512 1744 496
WIRE 1200 528 848 528
WIRE 1472 528 1200 528
WIRE 1968 528 1472 528
WIRE 1680 592 1616 592
WIRE 1744 592 1744 560
WIRE 1744 592 1680 592
WIRE 1824 592 1744 592
WIRE 1872 592 1824 592
WIRE 848 656 848 528
WIRE 1616 688 1616 592
WIRE 1824 688 1824 592
WIRE 1552 720 1488 720
WIRE 1760 720 1696 720
WIRE 1680 752 1680 592
WIRE 1680 752 1632 752
WIRE 1872 752 1872 592
WIRE 1872 752 1840 752
WIRE 960 800 944 800
WIRE 1248 800 1216 800
WIRE 1472 800 1472 528
WIRE 1488 800 1488 720
WIRE 1488 800 1472 800
WIRE 1968 800 1968 528
WIRE 2048 800 1968 800
WIRE 2208 800 2048 800
WIRE 2368 800 2208 800
WIRE 1200 832 1200 528
WIRE 1216 832 1216 800
WIRE 1216 832 1200 832
WIRE 1616 832 1616 816
WIRE 1824 832 1824 816
WIRE 1824 832 1616 832
WIRE 1488 848 1488 800
WIRE 1696 848 1696 720
WIRE 1696 848 1488 848
WIRE 2208 848 2208 800
WIRE 1616 864 1616 832
WIRE 1824 864 1824 832
WIRE 2048 864 2048 800
WIRE 848 896 848 656
WIRE 944 896 944 800
WIRE 944 896 848 896
WIRE 1152 896 1072 896
WIRE 1456 896 1360 896
WIRE 2544 896 2496 896
WIRE 2592 896 2544 896
WIRE 1664 944 1648 944
WIRE 1872 944 1856 944
WIRE 1488 976 1488 848
WIRE 1696 976 1696 848
WIRE 2496 976 2496 896
WIRE 944 992 944 896
WIRE 960 992 944 992
WIRE 1216 992 1216 832
WIRE 1248 992 1216 992
WIRE 2368 992 2368 800
WIRE 2448 992 2368 992
WIRE 1872 1024 1872 944
WIRE 2048 1024 2048 944
WIRE 2048 1024 1872 1024
WIRE 2208 1024 2208 928
WIRE 2208 1024 2048 1024
WIRE 2592 1024 2592 896
WIRE 2592 1024 2496 1024
WIRE 1616 1072 1616 1040
WIRE 1664 1072 1664 944
WIRE 1664 1072 1616 1072
WIRE 1744 1072 1664 1072
WIRE 1824 1072 1824 1040
WIRE 1824 1072 1744 1072
WIRE 1872 1072 1872 1024
WIRE 1872 1072 1824 1072
WIRE 2496 1104 2496 1072
WIRE 1744 1152 1744 1136
WIRE 2496 1168 2496 1104
WIRE 2064 1216 2016 1216
WIRE 2640 1216 2496 1216
WIRE 2368 1248 2368 992
WIRE 2448 1248 2368 1248
WIRE 800 1264 800 1216
WIRE 2128 1328 2128 1312
WIRE 2224 1328 2128 1328
WIRE 1968 1344 1968 800
WIRE 2016 1344 2016 1216
WIRE 2016 1344 1968 1344
WIRE 2496 1344 2496 1264
WIRE 2640 1344 2640 1216
WIRE 2640 1344 2496 1344
WIRE 2128 1360 2128 1328
WIRE 2496 1376 2496 1344
WIRE 800 1392 800 1344
WIRE 2016 1472 2016 1344
WIRE 2048 1472 2016 1472
FLAG 848 656 BUS03
IOPIN 848 656 BiDir
FLAG 800 1216 VDD
IOPIN 800 1216 BiDir
FLAG 800 1392 0
FLAG 1824 448 VDD
IOPIN 1824 448 BiDir
FLAG 1744 1152 0
FLAG 2496 1104 out
IOPIN 2496 1104 BiDir
FLAG 2496 1376 0
FLAG 2544 896 VDD
SYMBOL DP_nMOS_4x_A 1568 896 R0
SYMATTR InstName X6
SYMBOL DP_nMOS_4x_B 1776 896 R0
SYMATTR InstName X7
SYMBOL voltage 800 1248 R0
SYMATTR InstName V1
SYMATTR Value {VDD}
SYMBOL DP_pMOS_4x_A 1552 704 R0
SYMATTR InstName X13
SYMBOL DP_pMOS_4x_B 1760 704 R0
SYMATTR InstName X14
SYMBOL inverter_A 1264 784 R0
SYMATTR InstName X17
SYMBOL inverter_B 976 784 R0
SYMATTR InstName X18
SYMBOL Misc/jumper 1808 1104 R90
SYMATTR InstName X21
SYMBOL Misc/jumper 1808 528 R90
SYMATTR InstName X22
SYMBOL current 2048 864 R0
SYMATTR InstName I1
SYMATTR Value 0
SYMBOL voltage 2208 832 R0
SYMATTR InstName V2
SYMATTR Value 0
SYMBOL nmos4 2448 1168 R0
WINDOW 123 56 94 Left 2
SYMATTR Value2 m=16
SYMATTR InstName M1
SYMATTR Value NMOS_mobius
SYMATTR Prefix X
SYMBOL pmos4 2448 1072 M180
WINDOW 123 56 50 Left 2
SYMATTR Value2 m=16
SYMATTR InstName M2
SYMATTR Value PMOS_mobius
SYMATTR Prefix X
SYMBOL CS_nMOS_4x_A 2080 1392 R0
SYMATTR InstName X1
SYMBOL CS_pMOS_4x_A 2064 1200 R0
SYMATTR InstName X2
TEXT 984 1280 Left 2 !.global VDD\n.param VDD = 2.5\n.inc transistor_models_tsmc025_public.inc
TEXT 992 1456 Left 2 !*.tran 100u\n.dc V2 0 2.5 50m
