Version 4
SHEET 1 2156 1216
WIRE -752 -352 -816 -352
WIRE -752 0 -752 -352
WIRE -640 0 -640 -48
WIRE -640 0 -752 0
WIRE -624 96 -752 96
WIRE -624 112 -624 96
WIRE -624 128 -624 112
WIRE -752 224 -752 96
WIRE -752 224 -816 224
WIRE -672 528 -672 480
WIRE 1088 544 1088 528
WIRE 1088 592 1088 544
WIRE 1136 592 1088 592
WIRE 592 624 544 624
WIRE 784 624 752 624
WIRE 1024 624 960 624
WIRE -672 656 -672 608
WIRE 1136 656 1136 592
WIRE 1136 656 1104 656
WIRE 1232 656 1184 656
WIRE 1488 656 1424 656
WIRE 320 672 240 672
WIRE 464 672 384 672
WIRE 512 736 448 736
WIRE 544 736 544 624
WIRE 544 736 512 736
WIRE 240 752 240 672
WIRE 656 752 656 720
WIRE 704 752 656 752
WIRE 720 752 704 752
WIRE 752 752 752 624
WIRE 752 752 720 752
WIRE 848 752 848 720
WIRE 912 752 848 752
WIRE 960 752 960 624
WIRE 960 752 912 752
WIRE 1088 752 1088 720
WIRE 1136 752 1088 752
WIRE 1152 752 1136 752
WIRE 1184 752 1184 656
WIRE 1184 752 1152 752
WIRE 1376 752 1344 752
WIRE 1392 752 1376 752
WIRE 1424 752 1424 656
WIRE 1424 752 1392 752
WIRE 1632 752 1600 752
WIRE 1664 752 1632 752
WIRE 1712 752 1664 752
WIRE 656 768 656 752
WIRE 848 768 848 752
WIRE 1088 768 1088 752
WIRE 1184 848 1184 752
WIRE 1232 848 1184 848
WIRE 1424 848 1424 752
WIRE 1488 848 1424 848
WIRE 240 880 240 832
WIRE 304 880 240 880
WIRE 400 880 384 880
WIRE 544 880 544 736
WIRE 576 880 544 880
WIRE 752 880 752 752
WIRE 768 880 752 880
WIRE 960 880 960 752
WIRE 240 912 240 880
WIRE 720 928 720 752
WIRE 912 928 912 752
WIRE 1152 928 1152 752
WIRE 1392 928 1392 752
WIRE 1632 928 1632 752
WIRE 1120 944 1120 848
WIRE 1120 944 1088 944
WIRE 1088 976 1088 944
WIRE 720 1040 720 992
WIRE 912 1040 912 992
WIRE 912 1040 720 1040
WIRE 1088 1040 912 1040
WIRE 1152 1040 1152 992
WIRE 1152 1040 1088 1040
WIRE 1392 1040 1392 992
WIRE 1392 1040 1152 1040
WIRE 1632 1040 1632 992
WIRE 1632 1040 1392 1040
WIRE 448 1072 448 736
WIRE 592 1072 448 1072
WIRE 768 1072 656 1072
WIRE 1088 1072 1088 1040
WIRE 400 1104 400 880
WIRE 768 1104 768 1072
WIRE 768 1104 400 1104
WIRE 1712 1104 1712 752
WIRE 1712 1104 768 1104
FLAG -480 416 BUS01
IOPIN -480 416 BiDir
FLAG -352 416 BUS02
IOPIN -352 416 BiDir
FLAG -224 416 BUS03
IOPIN -224 416 BiDir
FLAG -96 416 BUS04
IOPIN -96 416 BiDir
FLAG 32 416 BUS05
IOPIN 32 416 BiDir
FLAG 160 416 BUS06
IOPIN 160 416 BiDir
FLAG 288 416 BUS07
IOPIN 288 416 BiDir
FLAG 416 416 BUS08
IOPIN 416 416 BiDir
FLAG 544 416 BUS09
IOPIN 544 416 BiDir
FLAG 672 416 BUS10
IOPIN 672 416 BiDir
FLAG -672 480 VDD
IOPIN -672 480 BiDir
FLAG -672 656 0
FLAG 240 912 0
FLAG 1376 752 out4
FLAG 1664 752 out5
FLAG 512 736 in1
FLAG 1088 976 0
FLAG 1088 544 VDD
FLAG 704 752 out1
FLAG 912 752 out2
FLAG 1136 752 out3
FLAG 1088 1072 0
SYMBOL nMOS_currentMirror 240 144 R0
SYMATTR InstName X1
SYMBOL DP_nMOS_1x_A 1072 144 R0
SYMATTR InstName X4
SYMBOL DP_nMOS_1x_B 1328 144 R0
SYMATTR InstName X5
SYMBOL CS_nMOS_4x_A 800 800 R0
SYMATTR InstName X2
SYMBOL DP_nMOS_4x_A 1040 800 R0
SYMATTR InstName X6
SYMBOL DP_nMOS_4x_B 1792 144 R0
SYMATTR InstName X7
SYMBOL voltage -672 512 R0
SYMATTR InstName V1
SYMATTR Value {VDD}
SYMBOL CS_pMOS_4x_A 784 608 R0
SYMATTR InstName X9
SYMBOL CS_pMOS_4x_B 592 608 R0
SYMATTR InstName X10
SYMBOL pMOS_currentMirror 224 -176 R0
SYMATTR InstName X11
SYMBOL pMOS_currentMirror_array -560 -176 R0
WINDOW 0 -142 -59 Bottom 2
SYMATTR InstName X12
SYMBOL CS_nMOS_4x_B 608 800 R0
SYMATTR InstName X3
SYMBOL DP_pMOS_4x_A 1024 608 R0
SYMATTR InstName X13
SYMBOL DP_pMOS_4x_B 1776 -192 R0
SYMATTR InstName X14
SYMBOL DP_pMOS_1x_B 1296 -192 R0
SYMATTR InstName X15
SYMBOL DP_pMOS_1x_A 1072 -192 R0
SYMATTR InstName X16
SYMBOL nMOS_currentMirror_array -528 144 R0
WINDOW 0 -148 -3 Bottom 2
SYMATTR InstName X8
SYMBOL inverter_A 1248 640 R0
SYMATTR InstName X17
SYMBOL inverter_B 1504 640 R0
SYMATTR InstName X18
SYMBOL OTA_nMOS -816 -48 M0
SYMATTR InstName X19
SYMBOL OTA_pMOS -816 -368 M0
WINDOW 0 16 -51 Bottom 2
SYMATTR InstName X20
SYMBOL voltage 240 736 R0
WINDOW 3 -67 296 VLeft 2
SYMATTR InstName V2
SYMATTR Value PULSE(0 {VDD} 0 {trise} {trise} 0 {2*trise})
SYMBOL Misc/jumper 624 1008 R0
SYMATTR InstName X21
SYMBOL Misc/jumper 352 608 R0
SYMATTR InstName X22
SYMBOL current 304 880 R270
WINDOW 0 32 40 VTop 2
WINDOW 3 -32 40 VBottom 2
SYMATTR InstName I1
SYMATTR Value PWL(0 0 100n 50000u 200n 0)
SYMBOL cap 704 928 R0
SYMATTR InstName C2
SYMATTR Value {Cload}
SYMBOL cap 896 928 R0
SYMATTR InstName C3
SYMATTR Value {Cload}
SYMBOL cap 1136 928 R0
SYMATTR InstName C4
SYMATTR Value {Cload}
SYMBOL cap 1376 928 R0
SYMATTR InstName C5
SYMATTR Value {Cload}
SYMBOL cap 1616 928 R0
SYMATTR InstName C6
SYMATTR Value {Cload}
TEXT -488 544 Left 2 !.model PMOS_mobius PMOS\n.model NMOS_mobius NMOS\n.global VDD\n.param VDD = 5
TEXT 624 -328 Left 2 ;Common Source
TEXT 1216 -328 Center 2 ;Differential Pairs\n1x
TEXT 1688 -336 Center 2 ;Differential Pairs\n4x
TEXT 216 -312 Center 2 ;Current Mirror\n1 : 1
TEXT -312 -312 Center 2 ;Current Mirror Array
TEXT 2064 -392 Center 2 ;Inverters\n16x
TEXT 616 1128 Left 2 !.tran 1u
TEXT 296 1120 Left 2 !.param trise=10m\n.param Cload = 100e-15\n*.nodeset V(in1)={VDD}
