Version 4
SHEET 1 1880 916
WIRE 368 608 288 608
WIRE 96 704 96 656
WIRE 288 704 288 608
WIRE 432 704 288 704
WIRE 432 784 432 704
WIRE 96 800 96 784
WIRE 208 800 96 800
WIRE 96 832 96 800
WIRE 208 896 208 800
WIRE 432 896 432 864
WIRE 432 896 208 896
FLAG -480 416 BUS01
IOPIN -480 416 BiDir
FLAG -352 416 BUS02
IOPIN -352 416 BiDir
FLAG -224 416 BUS03
IOPIN -224 416 BiDir
FLAG -96 416 BUS04
IOPIN -96 416 BiDir
FLAG 32 416 BUS05
IOPIN 32 416 BiDir
FLAG 160 416 BUS06
IOPIN 160 416 BiDir
FLAG 288 416 BUS07
IOPIN 288 416 BiDir
FLAG 416 416 BUS08
IOPIN 416 416 BiDir
FLAG 544 416 BUS09
IOPIN 544 416 BiDir
FLAG 672 416 BUS10
IOPIN 672 416 BiDir
FLAG 96 656 VDD
IOPIN 96 656 BiDir
FLAG 96 832 0
DATAFLAG 432 752 "$"
SYMBOL nMOS_currentMirror 240 144 R0
SYMATTR InstName X1
SYMBOL DP_nMOS_1x_A 1072 144 R0
SYMATTR InstName X4
SYMBOL DP_nMOS_1x_B 1328 144 R0
SYMATTR InstName X5
SYMBOL CS_nMOS_4x_A 528 144 R0
SYMATTR InstName X2
SYMBOL CS_nMOS_4x_A 784 144 R0
SYMATTR InstName X3
SYMBOL DP_nMOS_4x_A 1568 144 R0
SYMATTR InstName X6
SYMBOL DP_nMOS_4x_B 1792 144 R0
SYMATTR InstName X7
SYMBOL nMOS_currentMirror_array -528 144 R0
WINDOW 0 -148 -3 Bottom 2
SYMATTR InstName X8
SYMBOL voltage 96 688 R0
SYMATTR InstName V1
SYMATTR Value 2.5
SYMBOL CS_pMOS_4x_A 368 592 R0
SYMATTR InstName X9
SYMBOL res 416 768 R0
SYMATTR InstName R1
SYMATTR Value 10K
SYMBOL inverter_A 928 624 R0
WINDOW 0 -20 -55 Bottom 2
SYMATTR InstName X10
TEXT -488 544 Left 2 !.model PMOS_mobius PMOS\n.model NMOS_mobius NMOS\n.global VDD
TEXT 576 656 Left 2 !.op
