Version 4.1
SHEET 1 2260 1012
WIRE -752 -336 -816 -336
WIRE -752 0 -752 -336
WIRE -640 0 -640 -48
WIRE -640 0 -752 0
WIRE -480 16 -480 -48
WIRE -384 16 -384 -48
WIRE -288 16 -288 -48
WIRE -192 16 -192 -48
WIRE -96 16 -96 -48
WIRE -480 160 -480 96
WIRE -384 160 -384 96
WIRE -384 160 -480 160
WIRE -288 160 -288 96
WIRE -288 160 -384 160
WIRE -192 160 -192 96
WIRE -192 160 -288 160
WIRE -96 160 -96 96
WIRE -96 160 -192 160
WIRE -96 176 -96 160
WIRE -752 192 -816 192
WIRE -640 224 -640 0
WIRE -384 224 -480 224
WIRE -288 224 -384 224
WIRE -192 224 -288 224
WIRE -96 224 -192 224
WIRE -48 224 -96 224
WIRE 0 224 -48 224
WIRE -480 288 -480 224
WIRE -384 288 -384 224
WIRE -288 288 -288 224
WIRE -192 288 -192 224
WIRE -96 288 -96 224
WIRE 0 288 0 224
WIRE -752 352 -752 192
WIRE -640 352 -640 304
WIRE -640 352 -752 352
WIRE -640 432 -640 352
WIRE -480 432 -480 368
WIRE -384 432 -384 368
WIRE -288 432 -288 368
WIRE -192 432 -192 368
WIRE -96 432 -96 368
WIRE 0 432 0 368
WIRE -960 864 -960 816
WIRE -960 992 -960 944
FLAG -496 944 BUS01
IOPIN -496 944 BiDir
FLAG -368 944 BUS02
IOPIN -368 944 BiDir
FLAG -240 944 BUS03
IOPIN -240 944 BiDir
FLAG -112 944 BUS04
IOPIN -112 944 BiDir
FLAG 16 944 BUS05
IOPIN 16 944 BiDir
FLAG 144 944 BUS06
IOPIN 144 944 BiDir
FLAG 272 944 BUS07
IOPIN 272 944 BiDir
FLAG 400 944 BUS08
IOPIN 400 944 BiDir
FLAG 528 944 BUS09
IOPIN 528 944 BiDir
FLAG 656 944 BUS10
IOPIN 656 944 BiDir
FLAG -960 816 VDD
IOPIN -960 816 BiDir
FLAG -960 992 0
FLAG -48 224 VDD
FLAG -96 176 0
SYMBOL nMOS_currentMirror 240 144 R0
SYMATTR InstName X1
SYMBOL DP_nMOS_1x_A 1072 144 R0
SYMATTR InstName X4
SYMBOL DP_nMOS_1x_B 1328 144 R0
SYMATTR InstName X5
SYMBOL CS_nMOS_4x_A 528 144 R0
SYMATTR InstName X2
SYMBOL DP_nMOS_4x_A 1568 144 R0
SYMATTR InstName X6
SYMBOL DP_nMOS_4x_B 1792 144 R0
SYMATTR InstName X7
SYMBOL voltage -960 848 R0
SYMATTR InstName V1
SYMATTR Value {VDD}
SYMBOL CS_pMOS_4x_A 544 -176 R0
SYMATTR InstName X9
SYMBOL CS_pMOS_4x_B 768 -176 R0
SYMATTR InstName X10
SYMBOL pMOS_currentMirror 224 -176 R0
SYMATTR InstName X11
SYMBOL pMOS_currentMirror_array -544 -176 R0
WINDOW 0 -142 -59 Bottom 2
SYMATTR InstName X12
SYMBOL CS_nMOS_4x_B 768 144 R0
SYMATTR InstName X3
SYMBOL DP_pMOS_4x_A 1552 -192 R0
SYMATTR InstName X13
SYMBOL DP_pMOS_4x_B 1776 -192 R0
SYMATTR InstName X14
SYMBOL DP_pMOS_1x_B 1296 -192 R0
SYMATTR InstName X15
SYMBOL DP_pMOS_1x_A 1072 -192 R0
SYMATTR InstName X16
SYMBOL nMOS_currentMirror_array -528 464 R0
WINDOW 0 -148 -3 Bottom 2
SYMATTR InstName X8
SYMBOL inverter_A 2032 -288 R0
WINDOW 0 -24 -19 Bottom 2
SYMATTR InstName X17
SYMBOL inverter_B 2032 112 R0
WINDOW 0 -24 -19 Bottom 2
SYMATTR InstName X18
SYMBOL OTA_nMOS -816 -48 M0
WINDOW 0 0 -16 Bottom 2
SYMATTR InstName X19
SYMBOL OTA_pMOS -816 -368 M0
WINDOW 0 16 -51 Bottom 2
SYMATTR InstName X20
SYMBOL chip_vdd 944 416 R0
SYMATTR InstName X21
SYMBOL chip_vss 1136 416 R0
SYMATTR InstName X22
SYMBOL current -640 224 R0
WINDOW 123 0 0 Left 0
WINDOW 39 0 0 Left 0
SYMATTR InstName I1
SYMATTR Value 100µ
SYMBOL res -496 272 R0
SYMATTR InstName R1
SYMATTR Value 1k
SYMBOL res -400 272 R0
SYMATTR InstName R2
SYMATTR Value 1k
SYMBOL res -304 272 R0
SYMATTR InstName R3
SYMATTR Value 1k
SYMBOL res -208 272 R0
SYMATTR InstName R4
SYMATTR Value 1k
SYMBOL res -112 272 R0
SYMATTR InstName R5
SYMATTR Value 1k
SYMBOL res -16 272 R0
SYMATTR InstName R6
SYMATTR Value 1k
SYMBOL res -112 0 R0
SYMATTR InstName R7
SYMATTR Value 1k
SYMBOL res -208 0 R0
SYMATTR InstName R8
SYMATTR Value 1k
SYMBOL res -304 0 R0
SYMATTR InstName R9
SYMATTR Value 1k
SYMBOL res -400 0 R0
SYMATTR InstName R10
SYMATTR Value 1k
SYMBOL res -496 0 R0
SYMATTR InstName R11
SYMATTR Value 1k
TEXT -344 784 Left 2 !.global VDD\n.param VDD = 2.5\n.inc transistor_models_tsmc025_public.inc
TEXT 624 -328 Left 2 ;Common Source
TEXT 1216 -328 Center 2 ;Differential Pairs\n1x
TEXT 1688 -336 Center 2 ;Differential Pairs\n4x
TEXT 216 -312 Center 2 ;Current Mirror\n1 : 1
TEXT -312 -312 Center 2 ;Current Mirror Array
TEXT 2064 -392 Center 2 ;Inverters\n16x
TEXT -480 872 Left 2 ;.op
TEXT 856 520 Left 2 ;Note: Do not connect a BUS directly to VDD or VSS even with a jumper. \nUse the Chip_VDD and Chip_VSS.
TEXT 856 576 Left 2 ;Note: The numbers on the symbols correspond to the PCB pin numbers.
TEXT -480 904 Left 2 !*.op
TEXT -480 904 Left 2 !.tran 1u
