Version 4
SHEET 1 2260 996
WIRE -752 -336 -816 -336
WIRE -752 0 -752 -336
WIRE -640 0 -640 -48
WIRE -640 0 -752 0
WIRE -592 0 -640 0
WIRE -640 64 -752 64
WIRE -592 64 -640 64
WIRE -640 144 -640 64
WIRE -752 192 -752 64
WIRE -752 192 -816 192
WIRE -672 528 -672 480
WIRE -672 656 -672 608
FLAG -480 416 BUS01
IOPIN -480 416 BiDir
FLAG -352 416 BUS02
IOPIN -352 416 BiDir
FLAG -224 416 BUS03
IOPIN -224 416 BiDir
FLAG -96 416 BUS04
IOPIN -96 416 BiDir
FLAG 32 416 BUS05
IOPIN 32 416 BiDir
FLAG 160 416 BUS06
IOPIN 160 416 BiDir
FLAG 288 416 BUS07
IOPIN 288 416 BiDir
FLAG 416 416 BUS08
IOPIN 416 416 BiDir
FLAG 544 416 BUS09
IOPIN 544 416 BiDir
FLAG 672 416 BUS10
IOPIN 672 416 BiDir
FLAG -672 480 VDD
IOPIN -672 480 BiDir
FLAG -672 656 0
SYMBOL nMOS_currentMirror 240 144 R0
SYMATTR InstName X1
SYMBOL DP_nMOS_1x_A 1072 144 R0
SYMATTR InstName X4
SYMBOL DP_nMOS_1x_B 1328 144 R0
SYMATTR InstName X5
SYMBOL CS_nMOS_4x_A 528 144 R0
SYMATTR InstName X2
SYMBOL DP_nMOS_4x_A 1568 144 R0
SYMATTR InstName X6
SYMBOL DP_nMOS_4x_B 1792 144 R0
SYMATTR InstName X7
SYMBOL voltage -672 512 R0
SYMATTR InstName V1
SYMATTR Value {VDD}
SYMBOL CS_pMOS_4x_A 544 -176 R0
SYMATTR InstName X9
SYMBOL CS_pMOS_4x_B 768 -176 R0
SYMATTR InstName X10
SYMBOL pMOS_currentMirror 224 -176 R0
SYMATTR InstName X11
SYMBOL pMOS_currentMirror_array -544 -176 R0
WINDOW 0 -142 -59 Bottom 2
SYMATTR InstName X12
SYMBOL CS_nMOS_4x_B 768 144 R0
SYMATTR InstName X3
SYMBOL DP_pMOS_4x_A 1552 -192 R0
SYMATTR InstName X13
SYMBOL DP_pMOS_4x_B 1776 -192 R0
SYMATTR InstName X14
SYMBOL DP_pMOS_1x_B 1296 -192 R0
SYMATTR InstName X15
SYMBOL DP_pMOS_1x_A 1072 -192 R0
SYMATTR InstName X16
SYMBOL nMOS_currentMirror_array -528 176 R0
WINDOW 0 -148 -3 Bottom 2
SYMATTR InstName X8
SYMBOL inverter_A 2032 -288 R0
WINDOW 0 -24 -19 Bottom 2
SYMATTR InstName X17
SYMBOL inverter_B 2032 112 R0
WINDOW 0 -24 -19 Bottom 2
SYMATTR InstName X18
SYMBOL OTA_nMOS -816 -48 M0
WINDOW 0 0 -16 Bottom 2
SYMATTR InstName X19
SYMBOL OTA_pMOS -816 -368 M0
WINDOW 0 16 -51 Bottom 2
SYMATTR InstName X20
SYMBOL chip_vdd 944 416 R0
SYMATTR InstName X21
SYMBOL chip_vss 1136 416 R0
SYMATTR InstName X22
TEXT -488 544 Left 2 !.global VDD\n.param VDD = 2.5\n.inc transistor_models_tsmc025_public.inc
TEXT 624 -328 Left 2 ;Common Source
TEXT 1216 -328 Center 2 ;Differential Pairs\n1x
TEXT 1688 -336 Center 2 ;Differential Pairs\n4x
TEXT 216 -312 Center 2 ;Current Mirror\n1 : 1
TEXT -312 -312 Center 2 ;Current Mirror Array
TEXT 2064 -392 Center 2 ;Inverters\n16x
TEXT -480 720 Left 2 !.op
TEXT 856 520 Left 2 ;Note: Do not connect a BUS directly to VDD or VSS even with a jumper. \nUse the Chip_VDD and Chip_VSS.
TEXT 856 576 Left 2 ;Note: The numbers on the symbols correspond to the PCB pin numbers.
TEXT -584 0 Left 2 ;Pull your pMOS bias current from this node
TEXT -584 64 Left 2 ;Push your nMOS bias current into this node
