* Teaching model for basic circuit simulations
*
* Do not use for actual designs
*
* 0.5um technology; Lmin = 0.5um and Wmin = 1um and VDD 3.0V
*
* Output conductance modeled via lambda parameter; a different model card for different lengths
* VA = 14V/um assumed, so lambda is 1/(14*L) 1/V 
* 

******************************
* models for 0.5um length
******************************
.model NMOS_mobius NMOS LEVEL=2 TOX=7.200E-09 
*+ w=6u l=1u
+TPG=1 VTO=0.58
+UO=300 GAMMA=0.5863
+NSUB=2.7470E+16 NFS=1.98E+12 
+CGDO=4.0241E-10 CGSO=4.0241E-10
+CGBO=3.6144E-10 CJ=3.8541E-04 MJ=1.1854 CJSW=1.3940E-10
+MJSW=0.125195 PB=0.8
+LAMBDA=0.143
+ KF=1.4E-24 AF=0.8

.model PMOS_mobius PMOS LEVEL=2 PHI=0.600000 TOX=7.500E-09
*+ w=18u l=1u
+VTO=-0.675
+UO=109 GAMMA=0.4863
+NSUB=1.8900E+16 NFS=3.46E+12 
+CGDO=5.3752E-11 CGSO=5.3752E-11
+CGBO=3.3650E-10 CJ=4.8447E-04 MJ=0.5027 CJSW=1.6457E-10
+MJSW=0.217168 PB=0.85
+LAMBDA=0.143
+ KF=3E-24 AF=1.2

******************************
* models for 1um length 
******************************
.model CMOSN_1 NMOS LEVEL=2 TOX=7.200E-09 
+TPG=1 VTO=0.58
+UO=300 GAMMA=0.5863
+NSUB=2.7470E+16 NFS=1.98E+12 
+CGDO=4.0241E-10 CGSO=4.0241E-10
+CGBO=3.6144E-10 CJ=3.8541E-04 MJ=1.1854 CJSW=1.3940E-10
+MJSW=0.125195 PB=0.8
+LAMBDA=0.071
+ KF=1.4E-24 AF=0.8

.model CMOSP_1 PMOS LEVEL=2 PHI=0.600000 TOX=7.500E-09 
+VTO=-0.675
+UO=109 GAMMA=0.4863
+NSUB=1.8900E+16 NFS=3.46E+12 
+CGDO=5.3752E-11 CGSO=5.3752E-11
+CGBO=3.3650E-10 CJ=4.8447E-04 MJ=0.5027 CJSW=1.6457E-10
+MJSW=0.217168 PB=0.85
+LAMBDA=0.071
+ KF=3E-24 AF=1.2

******************************
* models for 2um length 
******************************
.model CMOSN_2 NMOS LEVEL=2 TOX=7.200E-09 
+TPG=1 VTO=0.58
+UO=300 GAMMA=0.5863
+NSUB=2.7470E+16 NFS=1.98E+12 
+CGDO=4.0241E-10 CGSO=4.0241E-10
+CGBO=3.6144E-10 CJ=3.8541E-04 MJ=1.1854 CJSW=1.3940E-10
+MJSW=0.125195 PB=0.8
+LAMBDA=0.035
+ KF=1.4E-24 AF=0.8

.model CMOSP_2 PMOS LEVEL=2 PHI=0.600000 TOX=7.500E-09 
+VTO=-0.675
+UO=109 GAMMA=0.4863
+NSUB=1.8900E+16 NFS=3.46E+12 
+CGDO=5.3752E-11 CGSO=5.3752E-11
+CGBO=3.3650E-10 CJ=4.8447E-04 MJ=0.5027 CJSW=1.6457E-10
+MJSW=0.217168 PB=0.85
+LAMBDA=0.035
+ KF=3E-24 AF=1.2

******************************
* models for 4um length
******************************
.model CMOSN_4 NMOS LEVEL=2 TOX=7.200E-09 
+TPG=1 VTO=0.58
+UO=300 GAMMA=0.5863
+NSUB=2.7470E+16 NFS=1.98E+12 KF=1.4E-24 AF=0.8
+CGDO=4.0241E-10 CGSO=4.0241E-10
+CGBO=3.6144E-10 CJ=3.8541E-04 MJ=1.1854 CJSW=1.3940E-10
+MJSW=0.125195 PB=0.8
+LAMBDA=0.0178

.model CMOSP_4 PMOS LEVEL=2 PHI=0.600000 TOX=7.500E-09 
+VTO=-0.675
+UO=109 GAMMA=0.4863
+NSUB=1.8900E+16 NFS=3.46E+12 KF=3E-24 AF=1.2
+CGDO=5.3752E-11 CGSO=5.3752E-11
+CGBO=3.3650E-10 CJ=4.8447E-04 MJ=0.5027 CJSW=1.6457E-10
+MJSW=0.217168 PB=0.85
+LAMBDA=0.0178

******************************
* models for 8um length
******************************
.model CMOSN_8 NMOS LEVEL=2 TOX=7.200E-09 
+TPG=1 VTO=0.58
+UO=300 GAMMA=0.5863
+NSUB=2.7470E+16 NFS=1.98E+12 KF=1.4E-24 AF=0.8
+CGDO=4.0241E-10 CGSO=4.0241E-10
+CGBO=3.6144E-10 CJ=3.8541E-04 MJ=1.1854 CJSW=1.3940E-10
+MJSW=0.125195 PB=0.8
+LAMBDA=0.0089

.model CMOSP_8 PMOS LEVEL=2 PHI=0.600000 TOX=7.500E-09 
+VTO=-0.675
+UO=109 GAMMA=0.4863
+NSUB=1.8900E+16 NFS=3.46E+12 KF=3E-24 AF=1.2
+CGDO=5.3752E-11 CGSO=5.3752E-11
+CGBO=3.3650E-10 CJ=4.8447E-04 MJ=0.5027 CJSW=1.6457E-10
+MJSW=0.217168 PB=0.85
+LAMBDA=0.0089


* old generic model card -- do not use
*
.model CMOSN NMOS LEVEL=2 TOX=7.200E-09 
+TPG=1 VTO=0.58
+UO=300 GAMMA=0.5863
+NSUB=2.7470E+16 NFS=1.98E+12 KF=1.4E-24 AF=0.8
+CGDO=4.0241E-10 CGSO=4.0241E-10
+CGBO=3.6144E-10 CJ=3.8541E-04 MJ=1.1854 CJSW=1.3940E-10
+MJSW=0.125195 PB=0.8

.model CMOSP PMOS LEVEL=2 PHI=0.600000 TOX=7.500E-09 
+VTO=-0.675
+UO=109 GAMMA=0.4863
+NSUB=1.8900E+16 NFS=3.46E+12 KF=3E-24 AF=1.2
+CGDO=5.3752E-11 CGSO=5.3752E-11
+CGBO=3.3650E-10 CJ=4.8447E-04 MJ=0.5027 CJSW=1.6457E-10
+MJSW=0.217168 PB=0.85

