Version 4
SHEET 1 1908 680
WIRE 1392 -640 1168 -640
WIRE 1488 -640 1392 -640
WIRE 1648 -640 1488 -640
WIRE 1728 -640 1648 -640
WIRE 1872 -640 1728 -640
WIRE 1904 -640 1872 -640
WIRE 1168 -592 1168 -640
WIRE 1392 -592 1392 -640
WIRE 1648 -576 1648 -640
WIRE 1872 -576 1872 -640
WIRE 1728 -512 1728 -640
WIRE 1728 -512 1664 -512
WIRE 1904 -512 1904 -640
WIRE 1904 -512 1888 -512
WIRE 176 -384 176 -416
WIRE 576 -384 576 -528
WIRE 576 -384 176 -384
WIRE 800 -384 800 -528
WIRE 800 -384 576 -384
WIRE 1104 -384 1104 -544
WIRE 1104 -384 800 -384
WIRE 1328 -384 1328 -544
WIRE 1328 -384 1104 -384
WIRE 1584 -384 1584 -544
WIRE 1584 -384 1328 -384
WIRE 1808 -384 1808 -544
WIRE 1808 -384 1584 -384
WIRE -608 -368 -608 -416
WIRE 176 -368 176 -384
WIRE -608 -224 -608 -288
WIRE -464 -224 -464 -416
WIRE -464 -224 -608 -224
WIRE -352 -224 -352 -416
WIRE -352 -224 -464 -224
WIRE -240 -224 -240 -416
WIRE -240 -224 -352 -224
WIRE -128 -224 -128 -416
WIRE -128 -224 -240 -224
WIRE -16 -224 -16 -416
WIRE -16 -224 -128 -224
WIRE 176 -224 176 -288
WIRE 176 -224 -16 -224
WIRE 320 -224 320 -416
WIRE 320 -224 176 -224
WIRE 640 -224 640 -432
WIRE 640 -224 320 -224
WIRE 864 -224 864 -432
WIRE 864 -224 640 -224
WIRE 1168 -224 1168 -448
WIRE 1168 -224 864 -224
WIRE 1392 -224 1392 -448
WIRE 1392 -224 1168 -224
WIRE 1648 -224 1648 -448
WIRE 1648 -224 1392 -224
WIRE 1872 -224 1872 -448
WIRE 1872 -224 1648 -224
WIRE -608 -192 -608 -224
WIRE -624 -96 -848 -96
WIRE -480 -96 -624 -96
WIRE -384 -96 -480 -96
WIRE -288 -96 -384 -96
WIRE -192 -96 -288 -96
WIRE -96 -96 -192 -96
WIRE 0 -96 -96 -96
WIRE 144 -96 0 -96
WIRE 288 -96 144 -96
WIRE 576 -96 288 -96
WIRE 816 -96 576 -96
WIRE 1120 -96 816 -96
WIRE 1376 -96 1120 -96
WIRE 1616 -96 1376 -96
WIRE 1840 -96 1616 -96
WIRE -624 -32 -624 -96
WIRE 144 -32 144 -96
WIRE -848 96 -848 -96
WIRE 144 96 144 48
WIRE 496 96 144 96
WIRE 736 96 496 96
WIRE 992 96 736 96
WIRE 1248 96 992 96
WIRE 1488 96 1248 96
WIRE 1712 96 1488 96
WIRE -624 112 -624 48
WIRE -480 112 -480 -96
WIRE -384 112 -384 -96
WIRE -288 112 -288 -96
WIRE -192 112 -192 -96
WIRE -96 112 -96 -96
WIRE 0 112 0 -96
WIRE 144 112 144 96
WIRE 288 112 288 -96
WIRE 576 112 576 -96
WIRE 816 112 816 -96
WIRE 1120 112 1120 -96
WIRE 1376 112 1376 -96
WIRE 1616 112 1616 -96
WIRE 1840 112 1840 -96
WIRE -848 144 -848 96
WIRE 496 224 496 96
WIRE 736 224 736 96
WIRE 992 224 992 96
WIRE 1248 224 1248 96
WIRE 1488 224 1488 96
WIRE 1712 224 1712 96
WIRE -848 272 -848 224
WIRE 1120 320 1120 288
WIRE 1376 320 1376 288
WIRE 1376 320 1120 320
WIRE 1616 320 1616 288
WIRE 1616 320 1376 320
WIRE 1648 320 1648 192
WIRE 1648 320 1616 320
WIRE 1840 320 1840 288
WIRE 1840 320 1648 320
WIRE 1872 320 1872 192
WIRE 1872 320 1840 320
WIRE 1120 368 1120 320
FLAG -480 416 BUS01
IOPIN -480 416 BiDir
FLAG -352 416 BUS02
IOPIN -352 416 BiDir
FLAG -224 416 BUS03
IOPIN -224 416 BiDir
FLAG -96 416 BUS04
IOPIN -96 416 BiDir
FLAG 32 416 BUS05
IOPIN 32 416 BiDir
FLAG 160 416 BUS06
IOPIN 160 416 BiDir
FLAG 288 416 BUS07
IOPIN 288 416 BiDir
FLAG 416 416 BUS08
IOPIN 416 416 BiDir
FLAG 544 416 BUS09
IOPIN 544 416 BiDir
FLAG 672 416 BUS10
IOPIN 672 416 BiDir
FLAG -848 96 VDD
IOPIN -848 96 BiDir
FLAG -848 272 0
FLAG -608 -192 0
FLAG 1488 -640 VDD
FLAG 1120 368 0
SYMBOL nMOS_currentMirror 240 144 R0
SYMATTR InstName X1
SYMBOL DP_nMOS_1x_A 1072 144 R0
SYMATTR InstName X4
SYMBOL DP_nMOS_1x_B 1328 144 R0
SYMATTR InstName X5
SYMBOL CS_nMOS_4x_A 528 144 R0
SYMATTR InstName X2
SYMBOL DP_nMOS_4x_A 1568 144 R0
SYMATTR InstName X6
SYMBOL DP_nMOS_4x_B 1792 144 R0
SYMATTR InstName X7
SYMBOL nMOS_currentMirror_array -528 144 R0
SYMATTR InstName X8
SYMBOL voltage -848 128 R0
SYMATTR InstName V1
SYMATTR Value 5
SYMBOL CS_pMOS_4x_A 576 -544 R0
SYMATTR InstName X9
SYMBOL CS_pMOS_4x_B 800 -544 R0
SYMATTR InstName X10
SYMBOL pMOS_currentMirror 256 -544 R0
SYMATTR InstName X11
SYMBOL pMOS_currentMirror_array -528 -544 R0
SYMATTR InstName X12
SYMBOL CS_nMOS_4x_B 768 144 R0
SYMATTR InstName X3
SYMBOL DP_pMOS_4x_A 1584 -560 R0
SYMATTR InstName X13
SYMBOL DP_pMOS_4x_B 1808 -560 R0
SYMATTR InstName X14
SYMBOL DP_pMOS_1x_B 1328 -560 R0
SYMATTR InstName X15
SYMBOL DP_pMOS_1x_A 1104 -560 R0
SYMATTR InstName X16
SYMBOL current -608 -368 R0
SYMATTR InstName I1
SYMATTR Value {Ibias}
SYMBOL current -624 -32 R0
SYMATTR InstName I2
SYMATTR Value {Ibias}
SYMBOL current 144 -32 R0
SYMATTR InstName I3
SYMATTR Value {Ibias}
SYMBOL current 176 -368 R0
SYMATTR InstName I4
SYMATTR Value {Ibias}
TEXT -488 544 Left 2 !.model PMOS_mobius PMOS\n.model NMOS_mobius NMOS\n.global VDD
TEXT 656 -696 Left 2 ;Common Source
TEXT 1248 -696 Center 2 ;Differential Pairs\n1x
TEXT 1720 -704 Center 2 ;Differential Pairs\n4x
TEXT 248 -680 Center 2 ;Current Mirror\n1 : 1
TEXT -280 -680 Center 2 ;Current Mirror Array
TEXT -24 552 Left 2 !.param Ibias = 100u\n.op
