Version 4
SHEET 1 2156 1632
WIRE 1232 576 1232 544
WIRE 1232 688 1232 640
WIRE 1360 688 1232 688
WIRE 1536 688 1440 688
WIRE 1600 688 1536 688
WIRE 416 704 112 704
WIRE 480 704 416 704
WIRE 1232 832 1232 688
WIRE 1296 832 1232 832
WIRE 112 848 112 704
WIRE 176 848 112 848
WIRE 1600 864 1600 688
WIRE 1600 864 1552 864
WIRE 1792 864 1600 864
WIRE 480 880 480 704
WIRE 480 880 432 880
WIRE 672 880 480 880
WIRE 912 880 832 880
WIRE 1296 880 912 880
WIRE 1792 880 1792 864
WIRE -208 896 -288 896
WIRE 176 896 -208 896
WIRE 672 896 672 880
WIRE 1408 1008 1408 976
WIRE 1440 1008 1440 976
WIRE 1472 1008 1472 976
WIRE 288 1024 288 992
WIRE 320 1024 320 992
WIRE 352 1024 352 992
WIRE 1120 1040 1120 1008
WIRE 1120 1040 1024 1040
WIRE 1152 1040 1120 1040
WIRE 1328 1040 1328 976
WIRE 1328 1040 1232 1040
WIRE 0 1056 0 1024
WIRE 0 1056 -96 1056
WIRE 32 1056 0 1056
WIRE 208 1056 208 992
WIRE 208 1056 112 1056
WIRE 1024 1072 1024 1040
WIRE 1120 1072 1120 1040
WIRE -96 1088 -96 1056
WIRE 0 1088 0 1056
WIRE 832 1168 832 880
WIRE -288 1184 -288 896
WIRE 1024 1200 1024 1152
WIRE 1120 1200 1120 1152
WIRE 1120 1200 1024 1200
WIRE -96 1216 -96 1168
WIRE 0 1216 0 1168
WIRE 0 1216 -96 1216
WIRE -448 1264 -448 1216
WIRE 832 1344 832 1248
WIRE 1792 1344 1792 944
WIRE 1792 1344 832 1344
WIRE -288 1360 -288 1264
WIRE 672 1360 672 960
WIRE 672 1360 -288 1360
WIRE 832 1376 832 1344
WIRE -448 1392 -448 1344
WIRE -288 1392 -288 1360
FLAG -448 1216 VDD
IOPIN -448 1216 BiDir
FLAG -448 1392 0
FLAG 0 1024 VDD
FLAG -288 1392 0
FLAG 416 704 out
FLAG -208 896 vin
FLAG 1120 1008 VDD
FLAG 832 1376 0
FLAG 1536 688 out_ac
FLAG 912 880 vin_ac
FLAG 1232 544 0
DATAFLAG 80 896 "$"
DATAFLAG 608 880 "$"
DATAFLAG 192 1056 "$"
DATAFLAG 1200 880 "$"
DATAFLAG 1728 864 "$"
DATAFLAG 1312 1040 "$"
SYMBOL voltage -448 1248 R0
SYMATTR InstName V1
SYMATTR Value {VDD}
SYMBOL res -16 1072 R0
SYMATTR InstName R1
SYMATTR Value 10e6
SYMBOL voltage -288 1168 R0
WINDOW 123 24 118 Left 2
SYMATTR InstName V2
SYMATTR Value PWL(0 {Vcm} 1n 0 2n {Vcm+Vstep} 1 {Vcm+Vstep})
SYMATTR Value2 AC 1
SYMBOL current -96 1088 R0
SYMATTR InstName I2
SYMATTR Value 100µ
SYMBOL cap 656 896 R0
SYMATTR InstName C2
SYMATTR Value {CL}
SYMBOL res 16 1072 R270
WINDOW 0 32 56 VTop 2
WINDOW 3 0 56 VBottom 2
SYMATTR InstName R3
SYMATTR Value 18K
SYMBOL MobiusChip_v3_OTA_two_stage_v2 272 880 R0
WINDOW 39 -58 -56 Left 2
SYMATTR InstName X23
SYMATTR SpiceLine Cc = {Cc} Rc = {Rc}
SYMBOL res 1104 1056 R0
SYMATTR InstName R2
SYMATTR Value 10e6
SYMBOL voltage 832 1152 R0
WINDOW 123 24 118 Left 2
SYMATTR InstName V3
SYMATTR Value 1.25
SYMATTR Value2 AC 1
SYMBOL current 1024 1072 R0
SYMATTR InstName I1
SYMATTR Value 100µ
SYMBOL cap 1776 880 R0
SYMATTR InstName C1
SYMATTR Value {CL}
SYMBOL res 1136 1056 R270
WINDOW 0 32 56 VTop 2
WINDOW 3 0 56 VBottom 2
SYMATTR InstName R4
SYMATTR Value 18K
SYMBOL MobiusChip_v3_OTA_two_stage_v2 1392 864 R0
WINDOW 39 -58 -56 Left 2
SYMATTR InstName X1
SYMATTR SpiceLine Cc = {Cc} Rc = {Rc}
SYMBOL cap 1216 576 R0
SYMATTR InstName C3
SYMATTR Value 10000
SYMBOL ind 1344 704 R270
WINDOW 0 32 56 VTop 2
WINDOW 3 5 56 VBottom 2
SYMATTR InstName L1
SYMATTR Value 10000
TEXT -464 1448 Left 2 !.global VDD\n.param VDD = 2.5\n.inc transistor_models_tsmc025_public.inc
TEXT 128 1440 Left 2 !.param Cc=1n Rc=300\n.param CL = 1n\n.param Vcm = 1.25\n.param Vstep = 0.25\n*.step PARAM Rc LIST 0.3 30 300 600\n.step PARAM Cc LIST 100p 200p 500p 1n\n.op\n.ac dec 10 1 1e9\n*.tran 100p 5u
