Version 4
SHEET 1 2156 1600
WIRE 816 688 672 688
WIRE 672 800 672 688
WIRE 672 800 496 800
WIRE 352 864 352 800
WIRE 672 864 672 800
WIRE 704 864 672 864
WIRE 784 864 768 864
WIRE 880 864 880 784
WIRE 880 864 864 864
WIRE 352 912 352 864
WIRE 496 912 496 800
WIRE 48 944 -80 944
WIRE 880 944 880 864
WIRE -16 1024 -80 1024
WIRE 48 1024 48 944
WIRE 224 1024 48 1024
WIRE 432 1088 352 1088
WIRE 496 1088 432 1088
WIRE -16 1120 -16 1024
WIRE 624 1120 624 1024
WIRE 624 1120 -16 1120
WIRE -48 1136 -80 1136
WIRE 432 1152 432 1088
WIRE 432 1184 432 1152
WIRE 432 1184 240 1184
WIRE -48 1200 -48 1136
WIRE 0 1200 -48 1200
WIRE 880 1216 880 944
WIRE 880 1216 336 1216
WIRE 0 1248 0 1200
WIRE 240 1248 240 1184
WIRE 336 1248 336 1216
FLAG 432 1152 BUS01
IOPIN 432 1152 BiDir
FLAG 352 864 BUS02
IOPIN 352 864 BiDir
FLAG 672 800 BUS03
IOPIN 672 800 BiDir
FLAG 880 944 BUS04
IOPIN 880 944 BiDir
FLAG -80 1136 biasn
IOPIN -80 1136 In
FLAG -80 1024 vinp
IOPIN -80 1024 In
FLAG -80 944 vinn
IOPIN -80 944 In
SYMBOL DP_nMOS_1x_A 304 944 R0
SYMATTR InstName X4
SYMBOL DP_nMOS_1x_B 544 944 M0
SYMATTR InstName X5
SYMBOL CS_pMOS_4x_A 816 672 R0
SYMATTR InstName X9
SYMBOL pMOS_currentMirror 432 672 R0
SYMATTR InstName X11
SYMBOL nMOS_currentMirror_array 96 1280 R0
WINDOW 0 -148 -3 Bottom 2
SYMATTR InstName X8
SYMBOL cap 768 848 R90
WINDOW 0 0 32 VBottom 2
WINDOW 3 32 32 VTop 2
SYMATTR InstName C1
SYMATTR Value {Cc}
SYMBOL res 880 848 R90
WINDOW 0 0 56 VBottom 2
WINDOW 3 32 56 VTop 2
SYMATTR InstName R2
SYMATTR Value {Rc}
TEXT -56 728 Left 2 !.param Cc = 1n\n.param Rc = 330
