Version 4
SHEET 1 1064 744
WIRE 544 64 224 64
WIRE 704 128 384 128
WIRE 784 128 704 128
WIRE 864 128 784 128
WIRE 912 128 864 128
WIRE 704 160 704 128
WIRE 784 160 784 128
WIRE 912 176 912 128
WIRE 384 224 384 128
WIRE 224 272 224 64
WIRE 240 272 224 272
WIRE 704 272 704 240
WIRE 784 272 784 240
WIRE 784 272 704 272
WIRE 496 288 448 288
WIRE 544 288 544 64
WIRE 544 288 496 288
WIRE 912 288 912 256
WIRE 960 288 912 288
WIRE 160 304 -48 304
WIRE 240 304 160 304
WIRE 544 336 544 288
WIRE 912 336 912 288
WIRE 912 336 704 336
WIRE 912 368 912 336
WIRE -48 432 -48 384
WIRE 544 432 544 400
WIRE 544 432 -48 432
WIRE 704 432 704 336
WIRE 704 432 544 432
WIRE 320 480 320 352
WIRE 720 480 320 480
WIRE 784 480 784 272
WIRE 784 480 720 480
WIRE 384 528 384 352
WIRE 848 528 384 528
WIRE 912 528 912 448
WIRE 912 528 848 528
FLAG 960 288 0
FLAG 864 128 VDD
FLAG 848 528 VSS
FLAG 720 480 bias_n
FLAG 496 288 out
FLAG 160 304 vinp
DATAFLAG 400 480 "$"
DATAFLAG 368 64 "$"
DATAFLAG 64 304 "$"
SYMBOL OTA_twoStage_N 352 288 R0
WINDOW 39 0 0 Left 0
SYMATTR InstName X1
SYMATTR SpiceLine Rc = {Rc} Cc = {Cc}
SYMBOL voltage 912 160 R0
SYMATTR InstName V1
SYMATTR Value {VDD}
SYMBOL voltage 912 352 R0
SYMATTR InstName V2
SYMATTR Value {VSS}
SYMBOL current 784 160 R0
SYMATTR InstName I1
SYMATTR Value {Ibias}
SYMBOL res 688 144 R0
SYMATTR InstName R1
SYMATTR Value 10e6
SYMBOL cap 528 336 R0
SYMATTR InstName C1
SYMATTR Value {CL}
SYMBOL voltage -48 288 R0
WINDOW 3 -99 163 Left 2
WINDOW 123 24 118 Left 2
SYMATTR InstName Vin
SYMATTR Value PWL(0 {Vcm} 1n {Vcm} 2n {Vcm+Vstep} 1 {Vcm+Vstep})
SYMATTR Value2 AC 1
TEXT 584 568 Left 2 !.param CL = 1n\n.param VDD = 2.5 VSS = 0 Ibias = 100u
TEXT -40 576 Left 2 !.op\n*.dc Vin -1.25 1.25 0.05\n*.ac dec 10 1 1e9\n.param Rc = 3 Cc = 0.08n\n.param Vcm = 1.25 Vstep = 0.25\n.step PARAM Rc list 3 100 300\n*.step PARAM Cc list 0.08n 0.1n 0.2n 0.4n 0.8n 1.6n\n*.tran 10u
TEXT 280 576 Left 2 !.inc tsmc025.lib
